<?xml version="1.0" encoding="UTF-8"?>

<!-- generated on 2025-12-13 17:22:27.279761 by Eclipse SUMO osmWebWizard.py v1_25_0+0000-ac6c5a6752d
<configuration>
    <net-file value="C:\Users\Zaidane Ayman\Desktop\SUMO APP\tools\2025-12-13-17-22-14\osm.net.xml.gz"/>
    <output-trip-file value="C:\Users\Zaidane Ayman\Desktop\SUMO APP\tools\2025-12-13-17-22-14\osm.passenger.trips.xml"/>
    <route-file value="C:\Users\Zaidane Ayman\Desktop\SUMO APP\tools\2025-12-13-17-22-14\osm.passenger.rou.xml"/>
    <prefix value="veh"/>
    <trip-attributes value="departLane=&quot;best&quot;"/>
    <fringe-start-attributes value="departSpeed=&quot;max&quot;"/>
    <vehicle-class value="passenger"/>
    <lanes value="True"/>
    <fringe-factor value="5"/>
    <allow-fringe.min-length value="1000.0"/>
    <edge-permission value="passenger"/>
    <via-edge-types value="highway.motorway,highway.motorway_link,highway.trunk_link,highway.primary_link,highway.secondary_link,highway.tertiary_link"/>
    <min-distance value="300.0"/>
    <min-distance.fringe value="10.0"/>
    <remove-loops value="True"/>
    <insertion-density value="12.0"/>
</configuration>
-->

<routes xmlns:xsi="http://www.w3.org/2001/XMLSchema-instance" xsi:noNamespaceSchemaLocation="http://sumo.dlr.de/xsd/routes_file.xsd">
    <vType id="veh_passenger" vClass="passenger"/>
    <trip id="veh0" depart="0.00" from="288826012#1" to="-147036283#4" departLane="best" type="veh_passenger"/>
    <trip id="veh1" depart="5.83" from="-583754526#0" to="-295320438#0" departLane="best" type="veh_passenger"/>
    <trip id="veh2" depart="11.67" from="331335305#6" to="288826040#17" departLane="best" type="veh_passenger"/>
    <trip id="veh3" depart="17.50" from="-726776557#2" to="-147036288#0" departLane="best" type="veh_passenger"/>
    <trip id="veh4" depart="23.33" from="-295320396" to="147036318#0" departLane="best" type="veh_passenger"/>
    <trip id="veh5" depart="29.17" from="-147036281#1" to="-295320388#2" departLane="best" type="veh_passenger"/>
    <trip id="veh6" depart="35.00" from="-295320415#0" to="149812836#0" departLane="best" type="veh_passenger"/>
    <trip id="veh7" depart="40.83" from="583971637#0" to="295320388#0" departLane="best" type="veh_passenger"/>
    <trip id="veh8" depart="46.66" from="-605381092#2" to="-288826029#2" departLane="best" type="veh_passenger"/>
    <trip id="veh9" depart="52.50" from="-147036320#4" to="-149812809#0" departLane="best" type="veh_passenger"/>
    <trip id="veh10" depart="58.33" from="605621976#1" to="288825964#1" departLane="best" type="veh_passenger"/>
    <trip id="veh11" depart="64.16" from="583971637#1" to="331335305#11" departLane="best" type="veh_passenger"/>
    <trip id="veh12" depart="70.00" from="147036323#4" to="829706781#4" departLane="best" type="veh_passenger"/>
    <trip id="veh13" depart="75.83" from="605336664#1" to="288825992#0" departLane="best" type="veh_passenger"/>
    <trip id="veh14" depart="81.66" from="637069772#0" to="149812812#5" departLane="best" type="veh_passenger" departSpeed="max"/>
    <trip id="veh15" depart="87.50" from="-295320421#3" to="-583971635#1" departLane="best" type="veh_passenger"/>
    <trip id="veh16" depart="93.33" from="-147036318#1" to="-361916856#0" departLane="best" type="veh_passenger"/>
    <trip id="veh17" depart="99.16" from="288826010#3" to="-725388155#4" departLane="best" type="veh_passenger"/>
    <trip id="veh18" depart="105.00" from="-725388155#2" to="-295320427#0" departLane="best" type="veh_passenger"/>
    <trip id="veh19" depart="110.83" from="-583751428#0" to="726776557#2" departLane="best" type="veh_passenger"/>
    <trip id="veh20" depart="116.66" from="-288826030#1" to="331335305#11" departLane="best" type="veh_passenger"/>
    <trip id="veh21" depart="122.50" from="-288826013#0" to="-726134532" departLane="best" type="veh_passenger"/>
    <trip id="veh22" depart="128.33" from="837216439#0" to="288826012#3" departLane="best" type="veh_passenger"/>
    <trip id="veh23" depart="134.16" from="147612138#2" to="288826044#1" departLane="best" type="veh_passenger"/>
    <trip id="veh24" depart="139.99" from="605381092#2" to="583751429#1" departLane="best" type="veh_passenger"/>
    <trip id="veh25" depart="145.83" from="-295320427#1" to="-147036290#1" departLane="best" type="veh_passenger"/>
    <trip id="veh26" depart="151.66" from="-588240321" to="-583751429#0" departLane="best" type="veh_passenger"/>
    <trip id="veh27" depart="157.49" from="-295320387#0" to="726914296" departLane="best" type="veh_passenger"/>
    <trip id="veh28" depart="163.33" from="637069772#12" to="-588376464#2" departLane="best" type="veh_passenger"/>
    <trip id="veh29" depart="169.16" from="288826030#0" to="-726776554" departLane="best" type="veh_passenger" departSpeed="max"/>
    <trip id="veh30" depart="174.99" from="725938770" to="147036283#0" departLane="best" type="veh_passenger"/>
    <trip id="veh31" depart="180.83" from="149812832#1" to="725853395#1" departLane="best" type="veh_passenger"/>
    <trip id="veh32" depart="186.66" from="-726140134" to="-295320436" departLane="best" type="veh_passenger" departSpeed="max"/>
    <trip id="veh33" depart="192.49" from="-149812809#1" to="288826007#0" departLane="best" type="veh_passenger"/>
    <trip id="veh34" depart="198.33" from="829706782#3" to="637069772#12" departLane="best" type="veh_passenger"/>
    <trip id="veh35" depart="204.16" from="-1238501351" to="331335305#0" departLane="best" type="veh_passenger" departSpeed="max"/>
    <trip id="veh36" depart="209.99" from="-583751427#3" to="288826013#1" departLane="best" type="veh_passenger"/>
    <trip id="veh37" depart="215.82" from="-149812809#11" to="1238501352#1" departLane="best" type="veh_passenger" departSpeed="max"/>
    <trip id="veh38" depart="221.66" from="637069772#12" to="-583751427#2" departLane="best" type="veh_passenger"/>
    <trip id="veh39" depart="227.49" from="147036309#1" to="-288826040#16" departLane="best" type="veh_passenger"/>
    <trip id="veh40" depart="233.32" from="725936960#0" to="725139314#1" departLane="best" type="veh_passenger"/>
    <trip id="veh41" depart="239.16" from="-583971636#4" to="288826012#1" departLane="best" type="veh_passenger" departSpeed="max"/>
    <trip id="veh42" depart="244.99" from="288825973#3" to="-288826028" departLane="best" type="veh_passenger"/>
    <trip id="veh43" depart="250.82" from="583751427#3" to="147036323#6" departLane="best" type="veh_passenger"/>
    <trip id="veh44" depart="256.66" from="-1037929949#0" to="-605336665#4" departLane="best" type="veh_passenger"/>
    <trip id="veh45" depart="262.49" from="-1238501353" to="726776552" departLane="best" type="veh_passenger"/>
    <trip id="veh46" depart="268.32" from="637069772#4" to="605356462" departLane="best" type="veh_passenger"/>
    <trip id="veh47" depart="274.16" from="-585509102" to="-147036310#6" departLane="best" type="veh_passenger"/>
    <trip id="veh48" depart="279.99" from="637069772#3" to="745448172#2" departLane="best" type="veh_passenger"/>
    <trip id="veh49" depart="285.82" from="-147036310#3" to="465611706#2" departLane="best" type="veh_passenger"/>
    <trip id="veh50" depart="291.66" from="465611700#5" to="-288825973#2" departLane="best" type="veh_passenger"/>
    <trip id="veh51" depart="297.49" from="-726778254" to="-295320427#2" departLane="best" type="veh_passenger"/>
    <trip id="veh52" depart="303.32" from="147036328#4" to="331335305#11" departLane="best" type="veh_passenger"/>
    <trip id="veh53" depart="309.15" from="-288826044#2" to="-588376464#11" departLane="best" type="veh_passenger"/>
    <trip id="veh54" depart="314.99" from="837216442#7" to="288826028" departLane="best" type="veh_passenger"/>
    <trip id="veh55" depart="320.82" from="1037929950#0" to="147036320#2" departLane="best" type="veh_passenger"/>
    <trip id="veh56" depart="326.65" from="-149812812#7" to="-295320438#1" departLane="best" type="veh_passenger"/>
    <trip id="veh57" depart="332.49" from="-295320427#2" to="-295320436" departLane="best" type="veh_passenger"/>
    <trip id="veh58" depart="338.32" from="-147036310#6" to="288826010#1" departLane="best" type="veh_passenger"/>
    <trip id="veh59" depart="344.15" from="-295320427#1" to="725938769" departLane="best" type="veh_passenger"/>
    <trip id="veh60" depart="349.99" from="607186801#0" to="-147036319#2" departLane="best" type="veh_passenger" departSpeed="max"/>
    <trip id="veh61" depart="355.82" from="-295320438#4" to="288826032#8" departLane="best" type="veh_passenger"/>
    <trip id="veh62" depart="361.65" from="-295320387#4" to="-288825976#2" departLane="best" type="veh_passenger"/>
    <trip id="veh63" depart="367.49" from="726776557#0" to="149812809#4" departLane="best" type="veh_passenger" departSpeed="max"/>
    <trip id="veh64" depart="373.32" from="583971638#1" to="-295320385#3" departLane="best" type="veh_passenger"/>
    <trip id="veh65" depart="379.15" from="-147036323#0" to="1238501352#0" departLane="best" type="veh_passenger"/>
    <trip id="veh66" depart="384.99" from="-726914292" to="147036285#4" departLane="best" type="veh_passenger"/>
    <trip id="veh67" depart="390.82" from="831976116#0" to="-149812809#0" departLane="best" type="veh_passenger" departSpeed="max"/>
    <trip id="veh68" depart="396.65" from="-726140135" to="-605621981#0" departLane="best" type="veh_passenger"/>
    <trip id="veh69" depart="402.48" from="637069772#0" to="-465611700#0" departLane="best" type="veh_passenger" departSpeed="max"/>
    <trip id="veh70" depart="408.32" from="-465611698#1" to="726192415" departLane="best" type="veh_passenger"/>
    <trip id="veh71" depart="414.15" from="1055637852" to="637069772#3" departLane="best" type="veh_passenger" departSpeed="max"/>
    <trip id="veh72" depart="419.98" from="147612118" to="-147036309#0" departLane="best" type="veh_passenger"/>
    <trip id="veh73" depart="425.82" from="837216443#1" to="605356470" departLane="best" type="veh_passenger"/>
    <trip id="veh74" depart="431.65" from="605621976#2" to="-288826032#1" departLane="best" type="veh_passenger"/>
    <trip id="veh75" depart="437.48" from="-725853392#0" to="829706782#7" departLane="best" type="veh_passenger"/>
    <trip id="veh76" depart="443.32" from="-583751427#2" to="583804002#2" departLane="best" type="veh_passenger"/>
    <trip id="veh77" depart="449.15" from="1312941717" to="1238501350" departLane="best" type="veh_passenger"/>
    <trip id="veh78" depart="454.98" from="829414162#3" to="837216442#7" departLane="best" type="veh_passenger"/>
    <trip id="veh79" depart="460.82" from="147612138#1" to="295320438#3" departLane="best" type="veh_passenger"/>
    <trip id="veh80" depart="466.65" from="829706782#1" to="149812812#7" departLane="best" type="veh_passenger"/>
    <trip id="veh81" depart="472.48" from="-147036297#7" to="149812817#2" departLane="best" type="veh_passenger"/>
    <trip id="veh82" depart="478.31" from="-288826007#0" to="829439297#1" departLane="best" type="veh_passenger"/>
    <trip id="veh83" depart="484.15" from="-147036318#1" to="-288826041#1" departLane="best" type="veh_passenger"/>
    <trip id="veh84" depart="489.98" from="193832611" to="288826040#16" departLane="best" type="veh_passenger" departSpeed="max"/>
    <trip id="veh85" depart="495.81" from="725140068" to="-465611698#0" departLane="best" type="veh_passenger"/>
    <trip id="veh86" depart="501.65" from="193832611" to="288825992#1" departLane="best" type="veh_passenger" departSpeed="max"/>
    <trip id="veh87" depart="507.48" from="-726776553#1" to="149812817#1" departLane="best" type="veh_passenger"/>
    <trip id="veh88" depart="513.31" from="-288826044#3" to="295320438#1" departLane="best" type="veh_passenger" departSpeed="max"/>
    <trip id="veh89" depart="519.15" from="-361916836#0" to="-726776554" departLane="best" type="veh_passenger"/>
    <trip id="veh90" depart="524.98" from="288826040#0" to="-583992885#1" departLane="best" type="veh_passenger"/>
    <trip id="veh91" depart="530.81" from="-588376464#0" to="465611630#1" departLane="best" type="veh_passenger"/>
    <trip id="veh92" depart="536.65" from="837216443#1" to="837216442#8" departLane="best" type="veh_passenger"/>
    <trip id="veh93" depart="542.48" from="-147036310#8" to="-295320435#0" departLane="best" type="veh_passenger"/>
    <trip id="veh94" depart="548.31" from="-583751427#0" to="726776556" departLane="best" type="veh_passenger"/>
    <trip id="veh95" depart="554.15" from="-725388155#1" to="-288826030#0" departLane="best" type="veh_passenger"/>
    <trip id="veh96" depart="559.98" from="605336666" to="295320415#2" departLane="best" type="veh_passenger"/>
    <trip id="veh97" depart="565.81" from="288826029#3" to="-1055637852" departLane="best" type="veh_passenger"/>
    <trip id="veh98" depart="571.64" from="288826032#0" to="726914293#0" departLane="best" type="veh_passenger"/>
    <trip id="veh99" depart="577.48" from="-288825949#0" to="-149812836#0" departLane="best" type="veh_passenger"/>
    <trip id="veh100" depart="583.31" from="288826010#2" to="-583751427#3" departLane="best" type="veh_passenger"/>
    <trip id="veh101" depart="589.14" from="147036297#1" to="725936960#1" departLane="best" type="veh_passenger"/>
    <trip id="veh102" depart="594.98" from="605621975" to="-149812802#0" departLane="best" type="veh_passenger"/>
    <trip id="veh103" depart="600.81" from="-726914292" to="-583804002#0" departLane="best" type="veh_passenger"/>
    <trip id="veh104" depart="606.64" from="288826010#4" to="-583751426#0" departLane="best" type="veh_passenger"/>
    <trip id="veh105" depart="612.48" from="-147036311#2" to="725388153#2" departLane="best" type="veh_passenger"/>
    <trip id="veh106" depart="618.31" from="605356470" to="149812817#0" departLane="best" type="veh_passenger"/>
    <trip id="veh107" depart="624.14" from="-288825979#2" to="-288825973#1" departLane="best" type="veh_passenger"/>
    <trip id="veh108" depart="629.98" from="-585509102" to="725858983" departLane="best" type="veh_passenger"/>
    <trip id="veh109" depart="635.81" from="583971631#4" to="637069772#12" departLane="best" type="veh_passenger"/>
    <trip id="veh110" depart="641.64" from="725388155#3" to="-295320427#0" departLane="best" type="veh_passenger"/>
    <trip id="veh111" depart="647.47" from="583751428#1" to="725388154" departLane="best" type="veh_passenger"/>
    <trip id="veh112" depart="653.31" from="637069772#0" to="829706782#1" departLane="best" type="veh_passenger" departSpeed="max"/>
    <trip id="veh113" depart="659.14" from="583971639#1" to="725388153#2" departLane="best" type="veh_passenger"/>
    <trip id="veh114" depart="664.97" from="-1238501356" to="331335305#5" departLane="best" type="veh_passenger" departSpeed="max"/>
    <trip id="veh115" depart="670.81" from="583971635#1" to="637069772#4" departLane="best" type="veh_passenger"/>
    <trip id="veh116" depart="676.64" from="583971639#1" to="-583751428#2" departLane="best" type="veh_passenger"/>
    <trip id="veh117" depart="682.47" from="583754528#2" to="-149812817#0" departLane="best" type="veh_passenger"/>
    <trip id="veh118" depart="688.31" from="-295320415#2" to="588376464#10" departLane="best" type="veh_passenger"/>
    <trip id="veh119" depart="694.14" from="1312941718#1" to="-588240310#4" departLane="best" type="veh_passenger"/>
    <trip id="veh120" depart="699.97" from="583971631#3" to="-295320438#4" departLane="best" type="veh_passenger"/>
    <trip id="veh121" depart="705.81" from="-1238501356" to="-295320387#1" departLane="best" type="veh_passenger" departSpeed="max"/>
    <trip id="veh122" depart="711.64" from="-605336664#1" to="637069772#5" departLane="best" type="veh_passenger"/>
    <trip id="veh123" depart="717.47" from="829706782#0" to="-583971631#0" departLane="best" type="veh_passenger"/>
    <trip id="veh124" depart="723.31" from="288826012#3" to="-726776557#0" departLane="best" type="veh_passenger"/>
    <trip id="veh125" depart="729.14" from="831976116#0" to="147036328#7" departLane="best" type="veh_passenger" departSpeed="max"/>
    <trip id="veh126" depart="734.97" from="726914293#1" to="-149812836#0" departLane="best" type="veh_passenger"/>
    <trip id="veh127" depart="740.80" from="829706782#2" to="-288826040#16" departLane="best" type="veh_passenger"/>
    <trip id="veh128" depart="746.64" from="829706781#3" to="-583751428#0" departLane="best" type="veh_passenger"/>
    <trip id="veh129" depart="752.47" from="-149812802#3" to="1238501352#1" departLane="best" type="veh_passenger"/>
    <trip id="veh130" depart="758.30" from="288825964#3" to="147036319#3" departLane="best" type="veh_passenger"/>
    <trip id="veh131" depart="764.14" from="-1037929950#0" to="726776549#0" departLane="best" type="veh_passenger"/>
    <trip id="veh132" depart="769.97" from="147036328#2" to="295320438#4" departLane="best" type="veh_passenger"/>
    <trip id="veh133" depart="775.80" from="361916836#2" to="288826040#0" departLane="best" type="veh_passenger"/>
    <trip id="veh134" depart="781.64" from="-725388153#2" to="-147036319#1" departLane="best" type="veh_passenger" departSpeed="max"/>
    <trip id="veh135" depart="787.47" from="288826032#1" to="-605381086#1" departLane="best" type="veh_passenger"/>
    <trip id="veh136" depart="793.30" from="295320436" to="-583992885#1" departLane="best" type="veh_passenger" departSpeed="max"/>
    <trip id="veh137" depart="799.14" from="726914295#0" to="288826040#2" departLane="best" type="veh_passenger"/>
    <trip id="veh138" depart="804.97" from="-1037929949#0" to="-583971634#1" departLane="best" type="veh_passenger"/>
    <trip id="veh139" depart="810.80" from="-837216439#1" to="149812813#0" departLane="best" type="veh_passenger"/>
    <trip id="veh140" depart="816.63" from="288826030#0" to="147036285#2" departLane="best" type="veh_passenger" departSpeed="max"/>
    <trip id="veh141" depart="822.47" from="1055637852" to="-295320435#1" departLane="best" type="veh_passenger" departSpeed="max"/>
    <trip id="veh142" depart="828.30" from="288826010#1" to="-605381094" departLane="best" type="veh_passenger"/>
    <trip id="veh143" depart="834.13" from="588376464#1" to="465611630#1" departLane="best" type="veh_passenger"/>
    <trip id="veh144" depart="839.97" from="288826040#1" to="-295320438#1" departLane="best" type="veh_passenger"/>
    <trip id="veh145" depart="845.80" from="-288826041#0" to="-147036283#4" departLane="best" type="veh_passenger"/>
    <trip id="veh146" depart="851.63" from="-465611630#2" to="147036292#0" departLane="best" type="veh_passenger" departSpeed="max"/>
    <trip id="veh147" depart="857.47" from="605621981#0" to="-147036319#4" departLane="best" type="veh_passenger" departSpeed="max"/>
    <trip id="veh148" depart="863.30" from="-726776549#0" to="288826007#2" departLane="best" type="veh_passenger"/>
    <trip id="veh149" depart="869.13" from="-288826040#3" to="295320387#4" departLane="best" type="veh_passenger"/>
    <trip id="veh150" depart="874.97" from="147036297#8" to="-465611698#0" departLane="best" type="veh_passenger"/>
    <trip id="veh151" depart="880.80" from="288826030#0" to="-1055637852" departLane="best" type="veh_passenger" departSpeed="max"/>
    <trip id="veh152" depart="886.63" from="465611638" to="583751427#0" departLane="best" type="veh_passenger" departSpeed="max"/>
    <trip id="veh153" depart="892.47" from="-149812802#1" to="1238501350" departLane="best" type="veh_passenger"/>
    <trip id="veh154" depart="898.30" from="-288826032#1" to="829414162#3" departLane="best" type="veh_passenger"/>
    <trip id="veh155" depart="904.13" from="-465611698#1" to="605621976#0" departLane="best" type="veh_passenger"/>
    <trip id="veh156" depart="909.96" from="1312941718#0" to="583971636#4" departLane="best" type="veh_passenger"/>
    <trip id="veh157" depart="915.80" from="288826032#4" to="831976116#1" departLane="best" type="veh_passenger"/>
    <trip id="veh158" depart="921.63" from="725163208" to="288825976#2" departLane="best" type="veh_passenger"/>
    <trip id="veh159" depart="927.46" from="295320436" to="147036316#2" departLane="best" type="veh_passenger" departSpeed="max"/>
    <trip id="veh160" depart="933.30" from="725388155#1" to="361916836#1" departLane="best" type="veh_passenger"/>
    <trip id="veh161" depart="939.13" from="147036284" to="-465611706#8" departLane="best" type="veh_passenger"/>
    <trip id="veh162" depart="944.96" from="-465611632" to="288826012#0" departLane="best" type="veh_passenger"/>
    <trip id="veh163" depart="950.80" from="465611700#5" to="147036321#0" departLane="best" type="veh_passenger"/>
    <trip id="veh164" depart="956.63" from="-147036316#1" to="-583971634#0" departLane="best" type="veh_passenger"/>
    <trip id="veh165" depart="962.46" from="-583754522" to="-588376464#8" departLane="best" type="veh_passenger"/>
    <trip id="veh166" depart="968.30" from="147036328#5" to="-288825992#2" departLane="best" type="veh_passenger"/>
    <trip id="veh167" depart="974.13" from="-726776550" to="-295320421#0" departLane="best" type="veh_passenger"/>
    <trip id="veh168" depart="979.96" from="-726776554" to="725936960#1" departLane="best" type="veh_passenger"/>
    <trip id="veh169" depart="985.80" from="607186801#0" to="465611706#9" departLane="best" type="veh_passenger" departSpeed="max"/>
    <trip id="veh170" depart="991.63" from="-725853392#2" to="-1055637852" departLane="best" type="veh_passenger"/>
    <trip id="veh171" depart="997.46" from="-605621981#3" to="465611680" departLane="best" type="veh_passenger"/>
    <trip id="veh172" depart="1003.29" from="-726776553#1" to="465611630#0" departLane="best" type="veh_passenger"/>
    <trip id="veh173" depart="1009.13" from="-295320415#0" to="-295320436" departLane="best" type="veh_passenger"/>
    <trip id="veh174" depart="1014.96" from="1037929949#0" to="-147036285#3" departLane="best" type="veh_passenger"/>
    <trip id="veh175" depart="1020.79" from="147036281#1" to="-288825973#1" departLane="best" type="veh_passenger"/>
    <trip id="veh176" depart="1026.63" from="288825992#3" to="-147036285#1" departLane="best" type="veh_passenger"/>
    <trip id="veh177" depart="1032.46" from="-725938769" to="149812802#3" departLane="best" type="veh_passenger"/>
    <trip id="veh178" depart="1038.29" from="-147036281#3" to="288826016#1" departLane="best" type="veh_passenger"/>
    <trip id="veh179" depart="1044.13" from="-288825952" to="147036283#4" departLane="best" type="veh_passenger"/>
    <trip id="veh180" depart="1049.96" from="-147036296#2" to="-725938770" departLane="best" type="veh_passenger"/>
    <trip id="veh181" depart="1055.79" from="465611700#0" to="-725938770" departLane="best" type="veh_passenger"/>
    <trip id="veh182" depart="1061.63" from="465611638" to="605356462" departLane="best" type="veh_passenger" departSpeed="max"/>
    <trip id="veh183" depart="1067.46" from="-465611700#2" to="-147036321#0" departLane="best" type="veh_passenger"/>
    <trip id="veh184" depart="1073.29" from="288826024" to="583754528#2" departLane="best" type="veh_passenger"/>
    <trip id="veh185" depart="1079.12" from="288826029#0" to="465611698#1" departLane="best" type="veh_passenger"/>
    <trip id="veh186" depart="1084.96" from="-1238501354" to="-288826024" departLane="best" type="veh_passenger"/>
    <trip id="veh187" depart="1090.79" from="-149812820#1" to="288826032#9" departLane="best" type="veh_passenger"/>
    <trip id="veh188" depart="1096.62" from="-288826029#0" to="288825973#2" departLane="best" type="veh_passenger"/>
    <trip id="veh189" depart="1102.46" from="410583558" to="-149812832#1" departLane="best" type="veh_passenger"/>
    <trip id="veh190" depart="1108.29" from="588376464#10" to="829439297#1" departLane="best" type="veh_passenger"/>
    <trip id="veh191" depart="1114.12" from="-588240310#4" to="288826040#2" departLane="best" type="veh_passenger"/>
    <trip id="veh192" depart="1119.96" from="295320435#0" to="-147036320#0" departLane="best" type="veh_passenger"/>
    <trip id="veh193" depart="1125.79" from="295320384" to="288826001#2" departLane="best" type="veh_passenger"/>
    <trip id="veh194" depart="1131.62" from="-147036328#0" to="583751428#0" departLane="best" type="veh_passenger"/>
    <trip id="veh195" depart="1137.46" from="605621981#0" to="288825962#0" departLane="best" type="veh_passenger" departSpeed="max"/>
    <trip id="veh196" depart="1143.29" from="-149812812#7" to="829706782#6" departLane="best" type="veh_passenger"/>
    <trip id="veh197" depart="1149.12" from="-837216439#0" to="-725398103" departLane="best" type="veh_passenger"/>
    <trip id="veh198" depart="1154.96" from="147036310#5" to="-605621981#0" departLane="best" type="veh_passenger"/>
    <trip id="veh199" depart="1160.79" from="605621981#0" to="588376464#4" departLane="best" type="veh_passenger" departSpeed="max"/>
    <trip id="veh200" depart="1166.62" from="-147036328#5" to="829439297#1" departLane="best" type="veh_passenger"/>
    <trip id="veh201" depart="1172.45" from="288826010#3" to="605336665#1" departLane="best" type="veh_passenger"/>
    <trip id="veh202" depart="1178.29" from="295320415#4" to="1238501352#1" departLane="best" type="veh_passenger"/>
    <trip id="veh203" depart="1184.12" from="331335305#5" to="829439297#1" departLane="best" type="veh_passenger"/>
    <trip id="veh204" depart="1189.95" from="-583751429#0" to="583971639#1" departLane="best" type="veh_passenger"/>
    <trip id="veh205" depart="1195.79" from="147036328#2" to="147036297#5" departLane="best" type="veh_passenger"/>
    <trip id="veh206" depart="1201.62" from="-837216442#8" to="331335305#11" departLane="best" type="veh_passenger"/>
    <trip id="veh207" depart="1207.45" from="-583751428#1" to="605621981#3" departLane="best" type="veh_passenger"/>
    <trip id="veh208" depart="1213.29" from="605336665#0" to="-147036323#4" departLane="best" type="veh_passenger"/>
    <trip id="veh209" depart="1219.12" from="637069772#5" to="-465611698#0" departLane="best" type="veh_passenger"/>
    <trip id="veh210" depart="1224.95" from="1312941718#2-AddedOnRampEdge" to="288825975#2" departLane="best" type="veh_passenger"/>
    <trip id="veh211" depart="1230.79" from="-725853392#0" to="-147036285#3" departLane="best" type="veh_passenger"/>
    <trip id="veh212" depart="1236.62" from="605621981#0" to="-288826040#5" departLane="best" type="veh_passenger" departSpeed="max"/>
    <trip id="veh213" depart="1242.45" from="-295320387#2" to="583971636#2" departLane="best" type="veh_passenger"/>
    <trip id="veh214" depart="1248.28" from="-605381092#2" to="725388153#2" departLane="best" type="veh_passenger"/>
    <trip id="veh215" depart="1254.12" from="295320388#2" to="-583754530#0" departLane="best" type="veh_passenger"/>
    <trip id="veh216" depart="1259.95" from="147036297#1" to="465611700#4" departLane="best" type="veh_passenger"/>
    <trip id="veh217" depart="1265.78" from="295320384" to="288826016#3" departLane="best" type="veh_passenger"/>
    <trip id="veh218" depart="1271.62" from="147036297#4" to="583971634#2" departLane="best" type="veh_passenger"/>
    <trip id="veh219" depart="1277.45" from="-147036320#5" to="-295320438#0" departLane="best" type="veh_passenger"/>
    <trip id="veh220" depart="1283.28" from="295320385#1" to="-588240312#0" departLane="best" type="veh_passenger"/>
    <trip id="veh221" depart="1289.12" from="149812819" to="147036290#1" departLane="best" type="veh_passenger"/>
    <trip id="veh222" depart="1294.95" from="361916856#0" to="-605381086#1" departLane="best" type="veh_passenger" departSpeed="max"/>
    <trip id="veh223" depart="1300.78" from="295320399" to="-583754525#1" departLane="best" type="veh_passenger"/>
    <trip id="veh224" depart="1306.62" from="-465611700#1" to="-288825949#0" departLane="best" type="veh_passenger"/>
    <trip id="veh225" depart="1312.45" from="-288826040#16" to="-149812841#2" departLane="best" type="veh_passenger"/>
    <trip id="veh226" depart="1318.28" from="147036323#4" to="465611706#4" departLane="best" type="veh_passenger"/>
    <trip id="veh227" depart="1324.12" from="-288826032#7" to="-295320436" departLane="best" type="veh_passenger"/>
    <trip id="veh228" depart="1329.95" from="147036292#1" to="331335305#11" departLane="best" type="veh_passenger"/>
    <trip id="veh229" depart="1335.78" from="-583971631#2" to="-149812809#10" departLane="best" type="veh_passenger"/>
    <trip id="veh230" depart="1341.61" from="-288826040#2" to="-295320438#4" departLane="best" type="veh_passenger"/>
    <trip id="veh231" depart="1347.45" from="-288826032#13" to="-1238501355" departLane="best" type="veh_passenger" departSpeed="max"/>
    <trip id="veh232" depart="1353.28" from="147036323#2" to="-583754528#0" departLane="best" type="veh_passenger"/>
    <trip id="veh233" depart="1359.11" from="295320387#3" to="-288825971" departLane="best" type="veh_passenger"/>
    <trip id="veh234" depart="1364.95" from="637069772#0" to="147036307" departLane="best" type="veh_passenger" departSpeed="max"/>
    <trip id="veh235" depart="1370.78" from="-288826032#6" to="-147036309#1" departLane="best" type="veh_passenger"/>
    <trip id="veh236" depart="1376.61" from="726914295#1" to="147036296#1" departLane="best" type="veh_passenger"/>
    <trip id="veh237" depart="1382.45" from="588376464#13" to="-726776557#0" departLane="best" type="veh_passenger"/>
    <trip id="veh238" depart="1388.28" from="-147036311#0" to="288826007#2" departLane="best" type="veh_passenger"/>
    <trip id="veh239" depart="1394.11" from="-147036297#3" to="-288826013#0" departLane="best" type="veh_passenger"/>
    <trip id="veh240" depart="1399.95" from="149812809#0" to="-588240310#1" departLane="best" type="veh_passenger" departSpeed="max"/>
    <trip id="veh241" depart="1405.78" from="465611700#4" to="288825971" departLane="best" type="veh_passenger"/>