<?xml version="1.0" encoding="UTF-8"?>

<!-- generated on 2025-12-13 21:31:35.527510 by Eclipse SUMO randomTrips.py v1_25_0+0000-ac6c5a6752d
<configuration>
    <net-file value="C:/Users/Zaidane Ayman/Documents/SumoProject/ENSAM_MAP/osm.net.xml.gz"/>
    <output-trip-file value="C:/Users/Zaidane Ayman/Documents/SumoProject/ENSAM_MAP/trips.trips.xml"/>
    <trip-attributes value="departLane=&quot;best&quot; departSpeed=&quot;max&quot;"/>
    <fringe-factor value="5"/>
    <verbose value="True"/>
    <period value="3.0"/>
</configuration>
-->

<routes xmlns:xsi="http://www.w3.org/2001/XMLSchema-instance" xsi:noNamespaceSchemaLocation="http://sumo.dlr.de/xsd/routes_file.xsd">
    <trip id="0" depart="0.00" from="288825976#0" to="-147036283#1" departLane="best" departSpeed="max"/>
    <trip id="1" depart="3.00" from="-465611706#3" to="-295320421#2" departLane="best" departSpeed="max"/>
    <trip id="2" depart="6.00" from="295320421#1" to="288826030#2" departLane="best" departSpeed="max"/>
    <trip id="3" depart="9.00" from="637069772#0" to="-147036320#6" departLane="best" departSpeed="max"/>
    <trip id="4" depart="12.00" from="-726134533" to="-147036285#1" departLane="best" departSpeed="max"/>
    <trip id="5" depart="15.00" from="-288826044#3" to="147036296#1" departLane="best" departSpeed="max"/>
    <trip id="6" depart="18.00" from="-1238501356" to="-288826041#1" departLane="best" departSpeed="max"/>
    <trip id="7" depart="21.00" from="288825992#2" to="147036319#8" departLane="best" departSpeed="max"/>
    <trip id="8" depart="24.00" from="-295320385#0" to="149812809#11" departLane="best" departSpeed="max"/>
    <trip id="9" depart="27.00" from="583754525#2" to="-1055637852" departLane="best" departSpeed="max"/>
    <trip id="10" depart="30.00" from="583751428#2" to="288826040#14" departLane="best" departSpeed="max"/>
    <trip id="11" depart="33.00" from="-588376464#12" to="-288826007#1" departLane="best" departSpeed="max"/>
    <trip id="12" depart="36.00" from="726776557#0" to="-588376464#2" departLane="best" departSpeed="max"/>
    <trip id="13" depart="39.00" from="-147036319#5" to="-147036328#2" departLane="best" departSpeed="max"/>
    <trip id="14" depart="42.00" from="588376464#11" to="149812813#0" departLane="best" departSpeed="max"/>
    <trip id="15" depart="45.00" from="583751429#1" to="295320415#2" departLane="best" departSpeed="max"/>
    <trip id="16" depart="48.00" from="147036310#8" to="829414162#2" departLane="best" departSpeed="max"/>
    <trip id="17" depart="51.00" from="-725139314#1" to="147036321#0" departLane="best" departSpeed="max"/>
    <trip id="18" depart="54.00" from="583971636#0" to="149812841#2" departLane="best" departSpeed="max"/>
    <trip id="19" depart="57.00" from="288826040#2" to="-147036297#5" departLane="best" departSpeed="max"/>
    <trip id="20" depart="60.00" from="-295320387#3" to="-583754525#0" departLane="best" departSpeed="max"/>
    <trip id="21" depart="63.00" from="-147036311#0" to="-295320436" departLane="best" departSpeed="max"/>
    <trip id="22" depart="66.00" from="-147036320#6" to="-465611706#9" departLane="best" departSpeed="max"/>
    <trip id="23" depart="69.00" from="288825973#2" to="-605621981#0" departLane="best" departSpeed="max"/>
    <trip id="24" depart="72.00" from="-605621975" to="-295320387#4" departLane="best" departSpeed="max"/>
    <trip id="25" depart="75.00" from="-465611700#0" to="726192413#0" departLane="best" departSpeed="max"/>
    <trip id="26" depart="78.00" from="288825992#0" to="149812819" departLane="best" departSpeed="max"/>
    <trip id="27" depart="81.00" from="-288826007#3" to="295320415#1" departLane="best" departSpeed="max"/>
    <trip id="28" depart="84.00" from="-288825992#3" to="-725139317" departLane="best" departSpeed="max"/>
    <trip id="29" depart="87.00" from="831976116#1" to="288825979#1" departLane="best" departSpeed="max"/>
    <trip id="30" depart="90.00" from="147036320#5" to="288826032#12" departLane="best" departSpeed="max"/>
    <trip id="31" depart="93.00" from="588240310#3" to="465611700#4" departLane="best" departSpeed="max"/>
    <trip id="32" depart="96.00" from="-295320387#5" to="-147036285#3" departLane="best" departSpeed="max"/>
    <trip id="33" depart="99.00" from="-583971636#4" to="-465611700#2" departLane="best" departSpeed="max"/>
    <trip id="34" depart="102.00" from="-288826040#8" to="726192414#1" departLane="best" departSpeed="max"/>
    <trip id="35" depart="105.00" from="605621976#1" to="-583971637#1" departLane="best" departSpeed="max"/>
    <trip id="36" depart="108.00" from="288826001#1" to="-725398102" departLane="best" departSpeed="max"/>
    <trip id="37" depart="111.00" from="725388153#1" to="1238501351" departLane="best" departSpeed="max"/>
    <trip id="38" depart="114.00" from="-465611680" to="-361916856#0" departLane="best" departSpeed="max"/>
    <trip id="39" depart="117.00" from="147036323#0" to="-465611698#0" departLane="best" departSpeed="max"/>
    <trip id="40" depart="120.00" from="149812802#3" to="725388153#2" departLane="best" departSpeed="max"/>
    <trip id="41" depart="123.00" from="-725389118" to="-295320415#3" departLane="best" departSpeed="max"/>
    <trip id="42" depart="126.00" from="837216442#8" to="147036297#3" departLane="best" departSpeed="max"/>
    <trip id="43" depart="129.00" from="-147036319#3" to="-147036297#6" departLane="best" departSpeed="max"/>
    <trip id="44" depart="132.00" from="-147036328#1" to="288825964#0" departLane="best" departSpeed="max"/>
    <trip id="45" depart="135.00" from="465611706#3" to="-726776553#1" departLane="best" departSpeed="max"/>
    <trip id="46" depart="138.00" from="-147036297#9" to="-725163208" departLane="best" departSpeed="max"/>
    <trip id="47" depart="141.00" from="837216442#6" to="147036310#8" departLane="best" departSpeed="max"/>
    <trip id="48" depart="144.00" from="745449287" to="605381086#2" departLane="best" departSpeed="max"/>
    <trip id="49" depart="147.00" from="-1238501350" to="295320387#3" departLane="best" departSpeed="max"/>
    <trip id="50" depart="150.00" from="288826030#0" to="147036318#2" departLane="best" departSpeed="max"/>
    <trip id="51" depart="153.00" from="-465611700#0" to="288825979#2" departLane="best" departSpeed="max"/>
    <trip id="52" depart="156.00" from="-147036328#4" to="-726914295#1" departLane="best" departSpeed="max"/>
    <trip id="53" depart="159.00" from="-726914295#0" to="726776556" departLane="best" departSpeed="max"/>
    <trip id="54" depart="162.00" from="605621976#0" to="-465611698#0" departLane="best" departSpeed="max"/>
    <trip id="55" depart="165.00" from="147036284" to="-288826032#1" departLane="best" departSpeed="max"/>
    <trip id="56" depart="168.00" from="725382113#1" to="605621975" departLane="best" departSpeed="max"/>
    <trip id="57" depart="171.00" from="-583804002#1" to="288825976#2" departLane="best" departSpeed="max"/>
    <trip id="58" depart="174.00" from="149812820#1" to="-288826000#2" departLane="best" departSpeed="max"/>
    <trip id="59" depart="177.00" from="361916836#0" to="147036319#1" departLane="best" departSpeed="max"/>
    <trip id="60" depart="180.00" from="465611680" to="147036311#1" departLane="best" departSpeed="max"/>
    <trip id="61" depart="183.00" from="-1037929949#0" to="-588240310#0" departLane="best" departSpeed="max"/>
    <trip id="62" depart="186.00" from="-1238501352#1" to="726134535" departLane="best" departSpeed="max"/>
    <trip id="63" depart="189.00" from="605621981#0" to="585509102" departLane="best" departSpeed="max"/>
    <trip id="64" depart="192.00" from="-583971634#0" to="-147036310#0" departLane="best" departSpeed="max"/>
    <trip id="65" depart="195.00" from="605621981#0" to="726776549#0" departLane="best" departSpeed="max"/>
    <trip id="66" depart="198.00" from="-147036318#1" to="147036283#1" departLane="best" departSpeed="max"/>
    <trip id="67" depart="201.00" from="-147036309#1" to="361916836#2" departLane="best" departSpeed="max"/>
    <trip id="68" depart="204.00" from="361916856#0" to="-149812841#2" departLane="best" departSpeed="max"/>
    <trip id="69" depart="207.00" from="1059564770" to="147036320#5" departLane="best" departSpeed="max"/>
    <trip id="70" depart="210.00" from="-465611680" to="605621976#1" departLane="best" departSpeed="max"/>
    <trip id="71" depart="213.00" from="-726134535" to="-295320388#1" departLane="best" departSpeed="max"/>
    <trip id="72" depart="216.00" from="147036316#0" to="295320415#2" departLane="best" departSpeed="max"/>
    <trip id="73" depart="219.00" from="-288826040#1" to="-583971636#1" departLane="best" departSpeed="max"/>
    <trip id="74" depart="222.00" from="837216442#5" to="288826000#1" departLane="best" departSpeed="max"/>
    <trip id="75" depart="225.00" from="-726192415" to="147036305#0" departLane="best" departSpeed="max"/>
    <trip id="76" depart="228.00" from="-149812809#11" to="-295320427#0" departLane="best" departSpeed="max"/>
    <trip id="77" depart="231.00" from="-588376464#1" to="149812809#11" departLane="best" departSpeed="max"/>
    <trip id="78" depart="234.00" from="-295320388#0" to="-295320415#4" departLane="best" departSpeed="max"/>
    <trip id="79" depart="237.00" from="-147036310#0" to="288825971" departLane="best" departSpeed="max"/>
    <trip id="80" depart="240.00" from="-295320387#5" to="725388155#3" departLane="best" departSpeed="max"/>
    <trip id="81" depart="243.00" from="605336665#1" to="-147036318#0" departLane="best" departSpeed="max"/>
    <trip id="82" depart="246.00" from="-295320415#3" to="288826016#3" departLane="best" departSpeed="max"/>
    <trip id="83" depart="249.00" from="-288826044#0" to="-288825964#1" departLane="best" departSpeed="max"/>
    <trip id="84" depart="252.00" from="1055637852" to="465611706#9" departLane="best" departSpeed="max"/>
    <trip id="85" depart="255.00" from="583751429#1" to="-288826040#14" departLane="best" departSpeed="max"/>
    <trip id="86" depart="258.00" from="-147036320#1" to="-726914292" departLane="best" departSpeed="max"/>
    <trip id="87" depart="261.00" from="-726134535" to="1238501353" departLane="best" departSpeed="max"/>
    <trip id="88" depart="264.00" from="295320396" to="288826029#1" departLane="best" departSpeed="max"/>
    <trip id="89" depart="267.00" from="829706782#8" to="-147036328#5" departLane="best" departSpeed="max"/>
    <trip id="90" depart="270.00" from="-725398103" to="-588376464#5" departLane="best" departSpeed="max"/>
    <trip id="91" depart="273.00" from="605336665#4" to="-361916856#0" departLane="best" departSpeed="max"/>
    <trip id="92" depart="276.00" from="-288826032#11" to="1037929950#2" departLane="best" departSpeed="max"/>
    <trip id="93" depart="279.00" from="-726134532" to="-465611706#9" departLane="best" departSpeed="max"/>
    <trip id="94" depart="282.00" from="-295320435#3" to="725936960#1" departLane="best" departSpeed="max"/>
    <trip id="95" depart="285.00" from="-726776550" to="605381086#2" departLane="best" departSpeed="max"/>
    <trip id="96" depart="288.00" from="147036319#7" to="-147036301#0" departLane="best" departSpeed="max"/>
    <trip id="97" depart="291.00" from="837216443#1" to="588240313" departLane="best" departSpeed="max"/>
    <trip id="98" depart="294.00" from="745448172#5" to="725938770" departLane="best" departSpeed="max"/>
    <trip id="99" depart="297.00" from="588376464#12" to="-288826029#2" departLane="best" departSpeed="max"/>
    <trip id="100" depart="300.00" from="1312941718#0" to="-295320396" departLane="best" departSpeed="max"/>
    <trip id="101" depart="303.00" from="-725389120" to="-147036310#1" departLane="best" departSpeed="max"/>
    <trip id="102" depart="306.00" from="-725139315" to="829706782#3" departLane="best" departSpeed="max"/>
    <trip id="103" depart="309.00" from="-465611680" to="465611706#9" departLane="best" departSpeed="max"/>
    <trip id="104" depart="312.00" from="-726914295#1" to="-726776554" departLane="best" departSpeed="max"/>
    <trip id="105" depart="315.00" from="726776557#0" to="837216442#5" departLane="best" departSpeed="max"/>
    <trip id="106" depart="318.00" from="147036320#4" to="295320385#4" departLane="best" departSpeed="max"/>
    <trip id="107" depart="321.00" from="-288825976#1" to="-583804002#1" departLane="best" departSpeed="max"/>
    <trip id="108" depart="324.00" from="745448172#5" to="147612138#3" departLane="best" departSpeed="max"/>
    <trip id="109" depart="327.00" from="147036318#1" to="331335305#0" departLane="best" departSpeed="max"/>
    <trip id="110" depart="330.00" from="-147036297#10" to="149812802#0" departLane="best" departSpeed="max"/>
    <trip id="111" depart="333.00" from="147036285#2" to="605336665#4" departLane="best" departSpeed="max"/>
    <trip id="112" depart="336.00" from="-288825979#1" to="726914293#0" departLane="best" departSpeed="max"/>
    <trip id="113" depart="339.00" from="-147036311#1" to="-288826032#9" departLane="best" departSpeed="max"/>
    <trip id="114" depart="342.00" from="149812810#1" to="288826029#3" departLane="best" departSpeed="max"/>
    <trip id="115" depart="345.00" from="-295320415#0" to="-149812820#0" departLane="best" departSpeed="max"/>
    <trip id="116" depart="348.00" from="607186801#1" to="-361916856#0" departLane="best" departSpeed="max"/>
    <trip id="117" depart="351.00" from="149812810#1" to="193832612" departLane="best" departSpeed="max"/>
    <trip id="118" depart="354.00" from="-725938769" to="149812802#0" departLane="best" departSpeed="max"/>
    <trip id="119" depart="357.00" from="147036301#0" to="726140135" departLane="best" departSpeed="max"/>
    <trip id="120" depart="360.00" from="-288826040#13" to="295320385#2" departLane="best" departSpeed="max"/>
    <trip id="121" depart="363.00" from="-295320415#3" to="-725398102" departLane="best" departSpeed="max"/>
    <trip id="122" depart="366.00" from="288826016#3" to="-583971631#1" departLane="best" departSpeed="max"/>
    <trip id="123" depart="369.00" from="-583971636#4" to="331335305#11" departLane="best" departSpeed="max"/>
    <trip id="124" depart="372.00" from="-147036310#1" to="1238501351" departLane="best" departSpeed="max"/>
    <trip id="125" depart="375.00" from="837216443#0" to="837216442#6" departLane="best" departSpeed="max"/>
    <trip id="126" depart="378.00" from="-147036310#2" to="-295320388#2" departLane="best" departSpeed="max"/>
    <trip id="127" depart="381.00" from="-465611680" to="726140134" departLane="best" departSpeed="max"/>
    <trip id="128" depart="384.00" from="-605381094" to="-288826012#0" departLane="best" departSpeed="max"/>
    <trip id="129" depart="387.00" from="583971637#1" to="288826040#5" departLane="best" departSpeed="max"/>
    <trip id="130" depart="390.00" from="149812836#0" to="829706782#6" departLane="best" departSpeed="max"/>
    <trip id="131" depart="393.00" from="288826000#2" to="-1055637852" departLane="best" departSpeed="max"/>
    <trip id="132" depart="396.00" from="583804002#3" to="-583971631#1" departLane="best" departSpeed="max"/>
    <trip id="133" depart="399.00" from="288826010#4" to="726192413#1" departLane="best" departSpeed="max"/>
    <trip id="134" depart="402.00" from="-149812820#0" to="-149812812#7" departLane="best" departSpeed="max"/>
    <trip id="135" depart="405.00" from="-147036323#4" to="147036321#3" departLane="best" departSpeed="max"/>
    <trip id="136" depart="408.00" from="-465611706#0" to="149812813#1" departLane="best" departSpeed="max"/>
    <trip id="137" depart="411.00" from="295320385#0" to="-295320385#2" departLane="best" departSpeed="max"/>
    <trip id="138" depart="414.00" from="288825971" to="-465611698#0" departLane="best" departSpeed="max"/>
    <trip id="139" depart="417.00" from="1312941718#2" to="725388155#3" departLane="best" departSpeed="max"/>
    <trip id="140" depart="420.00" from="588376464#1" to="-147036323#3" departLane="best" departSpeed="max"/>
    <trip id="141" depart="423.00" from="-726134535" to="-465611706#7" departLane="best" departSpeed="max"/>
    <trip id="142" depart="426.00" from="-1037929950#1" to="465611680" departLane="best" departSpeed="max"/>
    <trip id="143" depart="429.00" from="288825973#3" to="-465611698#0" departLane="best" departSpeed="max"/>
    <trip id="144" depart="432.00" from="295320427#2" to="147036321#0" departLane="best" departSpeed="max"/>
    <trip id="145" depart="435.00" from="-726140134" to="-1055637852" departLane="best" departSpeed="max"/>
    <trip id="146" depart="438.00" from="-147036310#4" to="637069772#4" departLane="best" departSpeed="max"/>
    <trip id="147" depart="441.00" from="637069772#9" to="147036320#0" departLane="best" departSpeed="max"/>
    <trip id="148" depart="444.00" from="583971638#1" to="147612138#3" departLane="best" departSpeed="max"/>
    <trip id="149" depart="447.00" from="-288825964#2" to="-149812841#1" departLane="best" departSpeed="max"/>
    <trip id="150" depart="450.00" from="-583971634#1" to="725388153#2" departLane="best" departSpeed="max"/>
    <trip id="151" depart="453.00" from="465611706#8" to="605381086#2" departLane="best" departSpeed="max"/>
    <trip id="152" depart="456.00" from="637069772#12" to="-295320387#5" departLane="best" departSpeed="max"/>
    <trip id="153" depart="459.00" from="-295320435#2" to="-149812809#0" departLane="best" departSpeed="max"/>
    <trip id="154" depart="462.00" from="465611698#0" to="637069772#5" departLane="best" departSpeed="max"/>
    <trip id="155" depart="465.00" from="-725853395#0" to="288825949#1" departLane="best" departSpeed="max"/>
    <trip id="156" depart="468.00" from="-288825976#1" to="726140134" departLane="best" departSpeed="max"/>
    <trip id="157" depart="471.00" from="605381086#0" to="829439297#1" departLane="best" departSpeed="max"/>
    <trip id="158" depart="474.00" from="583754526#1" to="637069772#12" departLane="best" departSpeed="max"/>
    <trip id="159" depart="477.00" from="-1238501356" to="295320427#1" departLane="best" departSpeed="max"/>
    <trip id="160" depart="480.00" from="-588240310#4" to="726140134" departLane="best" departSpeed="max"/>
    <trip id="161" depart="483.00" from="583751427#2" to="605381092#3" departLane="best" departSpeed="max"/>
    <trip id="162" depart="486.00" from="583754526#1" to="-465611700#1" departLane="best" departSpeed="max"/>
    <trip id="163" depart="489.00" from="465611700#3" to="-149812809#1" departLane="best" departSpeed="max"/>
    <trip id="164" depart="492.00" from="605381093#0" to="605356462" departLane="best" departSpeed="max"/>
    <trip id="165" depart="495.00" from="-295320385#2" to="583971636#0" departLane="best" departSpeed="max"/>
    <trip id="166" depart="498.00" from="-837216442#4" to="-583971632#2" departLane="best" departSpeed="max"/>
    <trip id="167" depart="501.00" from="465611706#8" to="-295320427#3" departLane="best" departSpeed="max"/>
    <trip id="168" depart="504.00" from="-1238501356" to="-288826040#3" departLane="best" departSpeed="max"/>
    <trip id="169" depart="507.00" from="-585509102" to="605381092#3" departLane="best" departSpeed="max"/>
    <trip id="170" depart="510.00" from="745448172#2" to="-465611713" departLane="best" departSpeed="max"/>
    <trip id="171" depart="513.00" from="288825976#2" to="-725853395#0" departLane="best" departSpeed="max"/>
    <trip id="172" depart="516.00" from="829706782#5" to="147036318#2" departLane="best" departSpeed="max"/>
    <trip id="173" depart="519.00" from="726140136" to="-149812812#7" departLane="best" departSpeed="max"/>
    <trip id="174" depart="522.00" from="745449287" to="-288826032#1" departLane="best" departSpeed="max"/>
    <trip id="175" depart="525.00" from="726914295#0" to="-465611700#0" departLane="best" departSpeed="max"/>
    <trip id="176" depart="528.00" from="-147036323#5" to="-726914295#1" departLane="best" departSpeed="max"/>
    <trip id="177" depart="531.00" from="295320388#2" to="-583971637#0" departLane="best" departSpeed="max"/>
    <trip id="178" depart="534.00" from="149812817#2" to="147036297#5" departLane="best" departSpeed="max"/>
    <trip id="179" depart="537.00" from="-725388153#0" to="147612118" departLane="best" departSpeed="max"/>
    <trip id="180" depart="540.00" from="-361916836#0" to="288826044#1" departLane="best" departSpeed="max"/>
    <trip id="181" depart="543.00" from="-1037929949#1" to="725938769" departLane="best" departSpeed="max"/>
    <trip id="182" depart="546.00" from="147036311#2" to="295320387#2" departLane="best" departSpeed="max"/>
    <trip id="183" depart="549.00" from="295320427#3" to="288826024" departLane="best" departSpeed="max"/>
    <trip id="184" depart="552.00" from="-605381092#3" to="-147036316#2" departLane="best" departSpeed="max"/>
    <trip id="185" depart="555.00" from="288826010#4" to="-588240321" departLane="best" departSpeed="max"/>
    <trip id="186" depart="558.00" from="-583971636#2" to="588376464#8" departLane="best" departSpeed="max"/>
    <trip id="187" depart="561.00" from="295320385#2" to="-583971631#2" departLane="best" departSpeed="max"/>
    <trip id="188" depart="564.00" from="-583971634#2" to="-726134535" departLane="best" departSpeed="max"/>
    <trip id="189" depart="567.00" from="-725398103" to="-583754530#0" departLane="best" departSpeed="max"/>
    <trip id="190" depart="570.00" from="-149812812#4" to="-726776552" departLane="best" departSpeed="max"/>
    <trip id="191" depart="573.00" from="726192411" to="288826030#2" departLane="best" departSpeed="max"/>
    <trip id="192" depart="576.00" from="637069772#6" to="149812836#2" departLane="best" departSpeed="max"/>
    <trip id="193" depart="579.00" from="-583971631#1" to="147036320#3" departLane="best" departSpeed="max"/>
    <trip id="194" depart="582.00" from="-1037929949#0" to="-583751429#1" departLane="best" departSpeed="max"/>
    <trip id="195" depart="585.00" from="-726140136" to="147612138#3" departLane="best" departSpeed="max"/>
    <trip id="196" depart="588.00" from="288826001#0" to="1238501352#1" departLane="best" departSpeed="max"/>
    <trip id="197" depart="591.00" from="-726776549#1" to="-295320396" departLane="best" departSpeed="max"/>
    <trip id="198" depart="594.00" from="1055637852" to="725388153#2" departLane="best" departSpeed="max"/>
    <trip id="199" depart="597.00" from="465611706#8" to="-288826030#0" departLane="best" departSpeed="max"/>
    <trip id="200" depart="600.00" from="-147036318#0" to="147036297#9" departLane="best" departSpeed="max"/>
    <trip id="201" depart="603.00" from="288825964#3" to="-588376464#13" departLane="best" departSpeed="max"/>
    <trip id="202" depart="606.00" from="583971631#0" to="331335305#11" departLane="best" departSpeed="max"/>
    <trip id="203" depart="609.00" from="288826019" to="-295320427#0" departLane="best" departSpeed="max"/>
    <trip id="204" depart="612.00" from="-288826032#8" to="-147036283#1" departLane="best" departSpeed="max"/>
    <trip id="205" depart="615.00" from="588376464#13" to="-147036318#2" departLane="best" departSpeed="max"/>
    <trip id="206" depart="618.00" from="-725936960#1" to="288825964#2" departLane="best" departSpeed="max"/>
    <trip id="207" depart="621.00" from="-288826032#13" to="288826040#12" departLane="best" departSpeed="max"/>
    <trip id="208" depart="624.00" from="147036281#4" to="-361916836#0" departLane="best" departSpeed="max"/>
    <trip id="209" depart="627.00" from="288826001#1" to="-1055637852" departLane="best" departSpeed="max"/>
    <trip id="210" depart="630.00" from="295320438#1" to="465611659" departLane="best" departSpeed="max"/>
    <trip id="211" depart="633.00" from="-147036323#3" to="-726776557#0" departLane="best" departSpeed="max"/>
    <trip id="212" depart="636.00" from="-288826013#1" to="726776556" departLane="best" departSpeed="max"/>
    <trip id="213" depart="639.00" from="147036297#5" to="-147036301#0" departLane="best" departSpeed="max"/>
    <trip id="214" depart="642.00" from="-295320435#2" to="605336664#0" departLane="best" departSpeed="max"/>
    <trip id="215" depart="645.00" from="-837216439#0" to="583754530#1" departLane="best" departSpeed="max"/>
    <trip id="216" depart="648.00" from="288826012#3" to="829706782#7" departLane="best" departSpeed="max"/>
    <trip id="217" depart="651.00" from="149812810#2" to="726776552" departLane="best" departSpeed="max"/>
    <trip id="218" depart="654.00" from="637069772#0" to="149812832#1" departLane="best" departSpeed="max"/>
    <trip id="219" depart="657.00" from="295320385#2" to="147036296#0" departLane="best" departSpeed="max"/>
    <trip id="220" depart="660.00" from="583971636#2" to="147036320#3" departLane="best" departSpeed="max"/>
    <trip id="221" depart="663.00" from="637069772#10" to="295320438#2" departLane="best" departSpeed="max"/>
    <trip id="222" depart="666.00" from="1055637852" to="-465611680" departLane="best" departSpeed="max"/>
    <trip id="223" depart="669.00" from="-295320435#0" to="288825976#1" departLane="best" departSpeed="max"/>
    <trip id="224" depart="672.00" from="361916856#0" to="147036309#2" departLane="best" departSpeed="max"/>
    <trip id="225" depart="675.00" from="288825959#3" to="-465611706#4" departLane="best" departSpeed="max"/>
    <trip id="226" depart="678.00" from="-147036310#7" to="-583751428#2" departLane="best" departSpeed="max"/>
    <trip id="227" depart="681.00" from="-465611700#5" to="-583971639#1" departLane="best" departSpeed="max"/>
    <trip id="228" depart="684.00" from="147036316#1" to="-288825973#2" departLane="best" departSpeed="max"/>
    <trip id="229" depart="687.00" from="-295320388#1" to="288826040#0" departLane="best" departSpeed="max"/>
    <trip id="230" depart="690.00" from="288826040#4" to="-147036310#7" departLane="best" departSpeed="max"/>
    <trip id="231" depart="693.00" from="-725858983" to="147036319#5" departLane="best" departSpeed="max"/>
    <trip id="232" depart="696.00" from="-725938768" to="-295320387#1" departLane="best" departSpeed="max"/>
    <trip id="233" depart="699.00" from="-725938770" to="725388155#2" departLane="best" departSpeed="max"/>
    <trip id="234" depart="702.00" from="149812802#2" to="288826040#10" departLane="best" departSpeed="max"/>
    <trip id="235" depart="705.00" from="605336664#0" to="465611630#1" departLane="best" departSpeed="max"/>
    <trip id="236" depart="708.00" from="-725139316" to="-1055637852" departLane="best" departSpeed="max"/>
    <trip id="237" depart="711.00" from="-605336665#1" to="331335305#2" departLane="best" departSpeed="max"/>
    <trip id="238" depart="714.00" from="588376464#5" to="726776554" departLane="best" departSpeed="max"/>
    <trip id="239" depart="717.00" from="-725938768" to="331335305#0" departLane="best" departSpeed="max"/>
    <trip id="240" depart="720.00" from="147036319#1" to="149812813#0" departLane="best" departSpeed="max"/>
    <trip id="241" depart="723.00" from="-295320385#0" to="-295320415#3" departLane="best" departSpeed="max"/>
    <trip id="242" depart="726.00" from="-726192413#1" to="-147036285#0" departLane="best" departSpeed="max"/>
    <trip id="243" depart="729.00" from="-588240321" to="288826030#4" departLane="best" departSpeed="max"/>
    <trip id="244" depart="732.00" from="-725853392#1" to="-288826029#0" departLane="best" departSpeed="max"/>
    <trip id="245" depart="735.00" from="1037929950#1" to="-149812841#1" departLane="best" departSpeed="max"/>
    <trip id="246" depart="738.00" from="193832612" to="-147036283#4" departLane="best" departSpeed="max"/>
    <trip id="247" depart="741.00" from="-725388155#1" to="147036328#1" departLane="best" departSpeed="max"/>
    <trip id="248" depart="744.00" from="-1238501356" to="288825984" departLane="best" departSpeed="max"/>
    <trip id="249" depart="747.00" from="-149812832#0" to="1238501352#0" departLane="best" departSpeed="max"/>
    <trip id="250" depart="750.00" from="-147036292#0" to="-725139317" departLane="best" departSpeed="max"/>
    <trip id="251" depart="753.00" from="-288826040#8" to="-588240310#4" departLane="best" departSpeed="max"/>
    <trip id="252" depart="756.00" from="331335305#9" to="-725139317" departLane="best" departSpeed="max"/>
    <trip id="253" depart="759.00" from="295320438#2" to="585509102" departLane="best" departSpeed="max"/>
    <trip id="254" depart="762.00" from="-295320438#3" to="-147036320#0" departLane="best" departSpeed="max"/>
    <trip id="255" depart="765.00" from="-1238501352#1" to="147036319#1" departLane="best" departSpeed="max"/>
    <trip id="256" depart="768.00" from="837216443#1" to="-605381086#0" departLane="best" departSpeed="max"/>
    <trip id="257" depart="771.00" from="288825992#3" to="465611706#6" departLane="best" departSpeed="max"/>
    <trip id="258" depart="774.00" from="288826000#0" to="331335305#2" departLane="best" departSpeed="max"/>
    <trip id="259" depart="777.00" from="726776551" to="-288826044#0" departLane="best" departSpeed="max"/>
    <trip id="260" depart="780.00" from="-1238501352#1" to="-288826000#1" departLane="best" departSpeed="max"/>
    <trip id="261" depart="783.00" from="-149812812#1" to="288826019" departLane="best" departSpeed="max"/>
    <trip id="262" depart="786.00" from="147036323#3" to="-295320415#1" departLane="best" departSpeed="max"/>
    <trip id="263" depart="789.00" from="288826040#12" to="465611630#1" departLane="best" departSpeed="max"/>
    <trip id="264" depart="792.00" from="-288826000#2" to="149812817#1" departLane="best" departSpeed="max"/>
    <trip id="265" depart="795.00" from="295320436" to="-149812812#6" departLane="best" departSpeed="max"/>
    <trip id="266" depart="798.00" from="583971631#1" to="726914296" departLane="best" departSpeed="max"/>
    <trip id="267" depart="801.00" from="-147036323#5" to="-147036283#2" departLane="best" departSpeed="max"/>
    <trip id="268" depart="804.00" from="-583971636#0" to="288826030#2" departLane="best" departSpeed="max"/>